*Heading
** Job name: test2 Model name: Model-1
** Generated by: Abaqus/CAE 2020
*Preprint, echo=NO, model=NO, history=NO, contact=NO
**
** PARTS
**
*Part, name=Part-1
*Node
      1,           0.,           0.,           0.
      2,         400.,           0.,           0.
      3,           0.,         300.,           0.
      4,           8.,           0.,           0.
      5,          16.,           0.,           0.
      6,          24.,           0.,           0.
      7,          32.,           0.,           0.
      8,          40.,           0.,           0.
      9,          48.,           0.,           0.
     10,          56.,           0.,           0.
     11,          64.,           0.,           0.
     12,          72.,           0.,           0.
     13,          80.,           0.,           0.
     14,          88.,           0.,           0.
     15,          96.,           0.,           0.
     16,         104.,           0.,           0.
     17,         112.,           0.,           0.
     18,         120.,           0.,           0.
     19,         128.,           0.,           0.
     20,         136.,           0.,           0.
** ... 81 like lines cut
*Element, type=B31
 1,  1,  4
 2,  4,  5
 3,  5,  6
 4,  6,  7
 5,  7,  8
 6,  8,  9
 7,  9, 10
 8, 10, 11
 9, 11, 12
10, 12, 13
11, 13, 14
12, 14, 15
13, 15, 16
14, 16, 17
15, 17, 18
16, 18, 19
17, 19, 20
18, 20, 21
19, 21, 22
20, 22, 23
** ... 30 like lines cut
*Element, type=T3D2
 51,   2,  53
 52,  53,  54
 53,  54,  55
 54,  55,  56
 55,  56,  57
 56,  57,  58
 57,  58,  59
 58,  59,  60
 59,  60,  61
 60,  61,  62
 61,  62,  63
 62,  63,  64
 63,  64,  65
 64,  65,  66
 65,  66,  67
 66,  67,  68
 67,  68,  69
 68,  69,  70
 69,  70,  71
 70,  71,  72
** ... 30 like lines cut
*Nset, nset=_PickedSet2, internal
  1,  2,  4,  5,  6,  7,  8,  9, 10, 11, 12, 13, 14, 15, 16, 17
 18, 19, 20, 21, 22, 23, 24, 25, 26, 27, 28, 29, 30, 31, 32, 33
 34, 35, 36, 37, 38, 39, 40, 41, 42, 43, 44, 45, 46, 47, 48, 49
 50, 51, 52
*Elset, elset=_PickedSet2, internal, generate
  1,  50,   1
*Nset, nset=_PickedSet3, internal
   2,   3,  53,  54,  55,  56,  57,  58,  59,  60,  61,  62,  63,  64,  65,  66
  67,  68,  69,  70,  71,  72,  73,  74,  75,  76,  77,  78,  79,  80,  81,  82
  83,  84,  85,  86,  87,  88,  89,  90,  91,  92,  93,  94,  95,  96,  97,  98
  99, 100, 101
*Elset, elset=_PickedSet3, internal, generate
  51,  100,    1
** Section: Section-1  Profile: beam
*Beam Section, elset=_PickedSet2, material=beam, temperature=GRADIENTS, section=CIRC
5.
0.,0.,-1.
** Section: cable
*Solid Section, elset=_PickedSet3, material=cable
3.14159,
*End Part
**  
**
** ASSEMBLY
**
*Assembly, name=Assembly
**  
*Instance, name=Part-1-1, part=Part-1
*End Instance
**  
*Nset, nset=_PickedSet4, internal, instance=Part-1-1
 1, 3
*Nset, nset=_PickedSet5, internal, instance=Part-1-1
 2,
*End Assembly
** 
** MATERIALS
** 
*Material, name=beam
*Elastic
350000., 0.3
*Material, name=cable
*Elastic
20000., 0.3
*No Compression
** ----------------------------------------------------------------
** 
** STEP: Step-1
** 
*Step, name=Step-1, nlgeom=NO, inc=10000
*Static
0.001, 1., 1e-07, 1.
** 
** BOUNDARY CONDITIONS
** 
** Name: BC-1 Type: 对称/反对称/完全固定
*Boundary
_PickedSet4, ENCASTRE
** 
** LOADS
** 
** Name: Load-1   Type: Concentrated force
*Cload
_PickedSet5, 1, 10.
_PickedSet5, 2, -10.
_PickedSet5, 3, 10.
** 
** OUTPUT REQUESTS
** 
*Restart, write, frequency=0
** 
** FIELD OUTPUT: F-Output-1
** 
*Output, field, variable=PRESELECT
** 
** HISTORY OUTPUT: H-Output-1
** 
*Output, history, variable=PRESELECT
*End Step
