FINISH
/CLEAR
*SET,ContactEx,3.5e11          !接触梁单元弹性模量
*SET,ContactR,10e-6           !接触梁单元单元横截面积
*SET,BeamEx,3.5e11         !梁单元弹性模量
*SET,BeamPrxy,0.28         !梁单元泊松比
*SET,BeamR,26e-6           !梁单元横截半径
*SET,DF,0.001              !四周力
*SET,PI,3.141592653

/FILNAME,JSS
/PREP7
ET,1,BEAM188              !3-D 2-NODE BEAM
KEYOPT,1,3,2
MP,EX,1,BeamEx             !梁单元材料参数
MP,PRXY,1,BeamPrxy 
MP,DENS,1,19.35E3
SECTYPE,1, BEAM, CSOLID
SECDATA,BeamR
ET,2,Beam188                !暂时不设置只受压
KEYOPT,2,3,2
MP,EX,2,ContactEx             !梁单元材料参数
MP,PRXY,2,BeamPrxy 
MP,DENS,2,19.35E3 
SECTYPE,2, BEAM, CSOLID
SECDATA,ContactR
N,1.000000,0.000351,-0.000049,0.000099
N,2.000000,0.000325,0.000058,0.000109
N,3.000000,0.000351,0.000121,0.000109
N,4.000000,0.000488,0.000221,0.000059
N,5.000000,0.000557,0.000230,0.000007
N,6.000000,0.000680,0.000151,-0.000047
N,7.000000,0.000767,0.000003,-0.000029
N,8.000000,0.000773,-0.000039,-0.000056
N,9.000000,0.000559,-0.000004,-0.000028
N,10.000000,0.000662,0.000153,0.000056
N,11.000000,0.000716,0.000321,0.000058
N,12.000000,0.000704,0.000463,-0.000021
N,13.000000,0.000607,0.000570,-0.000055
N,14.000000,0.000524,0.000591,-0.000029
N,15.000000,0.000419,0.000575,0.000052
N,16.000000,0.000370,0.000495,0.000059
N,17.000000,0.000388,0.000384,-0.000062
N,18.000000,0.000489,0.000220,-0.000013
N,19.000000,0.000566,0.000161,0.000000
N,20.000000,0.000661,0.000152,0.000000
! ... 132 like lines cut

TYPE,1
MAT,1
SECNUM,1
EN,1,1,2
EN,2,2,3
EN,3,3,4
EN,4,4,5
EN,5,5,6
EN,6,6,7
EN,7,7,8
EN,8,9,10
EN,9,10,11
EN,10,11,12
EN,11,12,13
EN,12,13,14
EN,13,14,15
EN,14,15,16
EN,15,16,17
EN,16,17,18
EN,17,18,19
EN,18,19,20
EN,19,20,21
EN,20,21,22
! ... 122 like lines cut

TYPE,2
MAT,2
REAL,2
SECNUM,2
EN,184,5,19
EN,185,15,118
EN,186,31,48
EN,187,34,59
EN,189,55,75
EN,191,101,122
EN,192,111,125
EN,193,134,149

EN,143,18,4
EN,144,6,21
EN,145,20,10
EN,147,14,119
EN,148,117,16
EN,149,17,129
EN,150,132,23
EN,151,24,143
EN,152,136,26
EN,153,29,42
EN,155,32,49
EN,156,60,33
EN,157,35,58
EN,158,140,38
EN,159,40,137
EN,162,51,66
EN,163,54,74
EN,164,76,56
EN,165,68,57
EN,166,62,65
! ... 15 like lines cut
F,90,Fx,0.000000
F,90,Fy,0.001000
F,90,Fz,0.000000
F,81,Fx,0.000000
F,81,Fy,0.001000
F,81,Fz,0.000000
F,91,Fx,0.000000
F,91,Fy,0.001000
F,91,Fz,0.000000
F,72,Fx,0.000000
F,72,Fy,0.001000
F,72,Fz,0.000000
F,82,Fx,0.000000
F,82,Fy,0.001000
F,82,Fz,0.000000
F,73,Fx,0.000000
F,73,Fy,0.001000
F,73,Fz,0.000000
F,1,Fx,0.000000
F,1,Fy,-0.001000
F,1,Fz,0.000000
F,9,Fx,0.000000
F,9,Fy,-0.001000
F,9,Fz,0.000000
F,8,Fx,0.000000
F,8,Fy,-0.001000
F,8,Fz,0.000000
F,146,Fx,0.000000
F,146,Fy,-0.001000
F,146,Fz,0.000000
F,147,Fx,0.000000
F,147,Fy,-0.001000
F,147,Fz,0.000000
F,152,Fx,0.000000
F,152,Fy,-0.001000
F,152,Fz,0.000000
F,97,Fx,-0.001000
F,97,Fy,0.000000
F,97,Fz,0.000000
F,98,Fx,-0.001000
F,98,Fy,0.000000
F,98,Fz,0.000000
F,113,Fx,-0.001000
F,113,Fy,0.000000
F,113,Fz,0.000000
F,114,Fx,-0.001000
F,114,Fy,0.000000
F,114,Fz,0.000000
F,63,Fx,0.001000
F,63,Fy,0.000000
F,63,Fz,0.000000
F,64,Fx,0.001000
F,64,Fy,0.000000
F,64,Fz,0.000000
F,44,Fx,0.001000
F,44,Fy,0.000000
F,44,Fz,0.000000
F,45,Fx,0.001000
F,45,Fy,0.000000
F,45,Fz,0.000000
D,90,UX,,,,,UZ,ROTX,ROTY,ROTZ
D,81,UX,,,,,UZ,ROTX,ROTY,ROTZ
D,91,UX,,,,,UZ,ROTX,ROTY,ROTZ
D,72,UX,,,,,UZ,ROTX,ROTY,ROTZ
D,82,UX,,,,,UZ,ROTX,ROTY,ROTZ
D,73,UX,,,,,UZ,ROTX,ROTY,ROTZ
D,1,UX,,,,,UZ,ROTX,ROTY,ROTZ
D,9,UX,,,,,UZ,ROTX,ROTY,ROTZ
D,8,UX,,,,,UZ,ROTX,ROTY,ROTZ
D,146,UX,,,,,UZ,ROTX,ROTY,ROTZ
D,147,UX,,,,,UZ,ROTX,ROTY,ROTZ
D,152,UX,,,,,UZ,ROTX,ROTY,ROTZ
D,97,UY,,,,,UZ,ROTX,ROTY,ROTZ
D,98,UY,,,,,UZ,ROTX,ROTY,ROTZ
D,113,UY,,,,,UZ,ROTX,ROTY,ROTZ
D,114,UY,,,,,UZ,ROTX,ROTY,ROTZ
D,63,UY,,,,,UZ,ROTX,ROTY,ROTZ
D,64,UY,,,,,UZ,ROTX,ROTY,ROTZ
D,44,UY,,,,,UZ,ROTX,ROTY,ROTZ
D,45,UY,,,,,UZ,ROTX,ROTY,ROTZ

FINISH

/SOLU
ANTYPE,STATIC
NLGEOM,ON
TIMINT,ON
OUTERS,ALL,ALL
NSUBST,50,100,50
NROPT,FULL
KBC,1
TIME,1
ALLSEL,ALL
SOLVE

